14bus_VLN_Node.Txt

LINE-GROUND and LINE-LINE VOLTAGES BY BUS & NODE

Bus       Node    VLN (kV)   Angle      pu     Base kV    Node-Node   VLL (kV)  Angle      pu

SOURCEBUS 1       42.165 /_   -0.1    1.0584    69.000        1-2     73.032 /_   29.9    1.0584
   -      2       42.165 /_ -120.1    1.0584    69.000        2-3     73.032 /_  -90.1    1.0584
   -      3       42.165 /_  119.9    1.0584    69.000        3-1     73.032 /_  149.9    1.0584
2 ....... 1       36.566 /_   -6.9   0.91788    69.000        1-2     63.334 /_   23.1   0.91788
   -      2       36.566 /_ -126.9   0.91788    69.000        2-3     63.334 /_  -96.9   0.91788
   -      3       36.566 /_  113.1   0.91788    69.000        3-1     63.334 /_  143.1   0.91788
5 ....... 1       33.422 /_  -12.1   0.83896    69.000        1-2     57.888 /_   17.9   0.83896
   -      2       33.422 /_ -132.1   0.83896    69.000        2-3     57.888 /_ -102.1   0.83896
   -      3       33.422 /_  107.9   0.83896    69.000        3-1     57.888 /_  137.9   0.83896
1 ....... 1       5.6034 /_  -29.0   0.70328    13.800        1-2     9.7053 /_    1.0   0.70328
   -      2       5.6034 /_ -149.0   0.70328    13.800        2-3     9.7053 /_ -119.0   0.70328
   -      3       5.6034 /_   91.0   0.70328    13.800        3-1     9.7053 /_  121.0   0.70328
9 ....... 1       5.6034 /_  -29.0   0.70328    13.800        1-2     9.7053 /_    1.0   0.70328
   -      2       5.6034 /_ -149.0   0.70328    13.800        2-3     9.7053 /_ -119.0   0.70328
   -      3       5.6034 /_   91.0   0.70328    13.800        3-1     9.7053 /_  121.0   0.70328
3 ....... 1       31.145 /_  -19.9   0.78181    69.000        1-2     53.945 /_   10.1   0.78181
   -      2       31.145 /_ -139.9   0.78181    69.000        2-3     53.945 /_ -109.9   0.78181
   -      3       31.145 /_  100.1   0.78181    69.000        3-1     53.945 /_  130.1   0.78181
4 ....... 1       32.657 /_  -14.4   0.81977    69.000        1-2     56.564 /_   15.6   0.81977
   -      2       32.657 /_ -134.4   0.81977    69.000        2-3     56.564 /_ -104.4   0.81977
   -      3       32.657 /_  105.6   0.81977    69.000        3-1     56.564 /_  135.6   0.81977
6 ....... 1       6.1331 /_  -24.7   0.76977    13.800        1-2     10.623 /_    5.3   0.76977
   -      2       6.1331 /_ -144.7   0.76977    13.800        2-3     10.623 /_ -114.7   0.76977
   -      3       6.1331 /_   95.3   0.76977    13.800        3-1     10.623 /_  125.3   0.76977
12 ...... 1       5.9531 /_  -27.0   0.74718    13.800        1-2     10.311 /_    3.0   0.74718
   -      2       5.9531 /_ -147.0   0.74718    13.800        2-3     10.311 /_ -117.0   0.74718
   -      3       5.9531 /_   93.0   0.74718    13.800        3-1     10.311 /_  123.0   0.74718
13 ...... 1       5.8608 /_  -27.3    0.7356    13.800        1-2     10.151 /_    2.7    0.7356
   -      2       5.8608 /_ -147.3    0.7356    13.800        2-3     10.151 /_ -117.3    0.7356
   -      3       5.8608 /_   92.7    0.7356    13.800        3-1     10.151 /_  122.7    0.7356
11 ...... 1       5.8419 /_  -26.8   0.73322    13.800        1-2     10.118 /_    3.2   0.73322
   -      2       5.8419 /_ -146.8   0.73322    13.800        2-3     10.118 /_ -116.8   0.73322
   -      3       5.8419 /_   93.2   0.73322    13.800        3-1     10.118 /_  123.2   0.73322
10 ...... 1       5.6574 /_  -28.4   0.71007    13.800        1-2      9.799 /_    1.6   0.71007
   -      2       5.6574 /_ -148.4   0.71007    13.800        2-3      9.799 /_ -118.4   0.71007
   -      3       5.6574 /_   91.6   0.71007    13.800        3-1      9.799 /_  121.6   0.71007
14 ...... 1       5.5087 /_  -30.3    0.6914    13.800        1-2     9.5413 /_   -0.3    0.6914
   -      2       5.5087 /_ -150.3    0.6914    13.800        2-3     9.5413 /_ -120.3    0.6914
   -      3       5.5087 /_   89.7    0.6914    13.800        3-1     9.5413 /_  119.7    0.6914
7 ....... 1       6.6791 /_  -14.3    0.8383    13.800        1-2     11.569 /_   15.7    0.8383
   -      2       6.6791 /_ -134.3    0.8383    13.800        2-3     11.569 /_ -104.3    0.8383
   -      3       6.6791 /_  105.7    0.8383    13.800        3-1     11.569 /_  135.7    0.8383
8 ....... 1       8.5384 /_  -14.2   0.82161    18.000        1-2     14.789 /_   15.8   0.82161
   -      2       8.5384 /_ -134.2   0.82161    18.000        2-3     14.789 /_ -104.2   0.82161
   -      3       8.5384 /_  105.8   0.82161    18.000        3-1     14.789 /_  135.8   0.82161
